
Circuit: *interdict nmos w1

abs(v(alim)) = 5.000000e-02
v(drain) = 5.000000e-02
v(gate) = 0.000000e+00
v(source) = 0.000000e+00
v(body) = 0.000000e+00
i(vd) = -2.02617e-10
i(vg) = 8.570521e-12
i(vs) = 1.940467e-10
i(vb) = -3.95075e-20
abs(v(alim)) = 1.000000e-01
v(drain) = 1.000000e-01
v(gate) = 0.000000e+00
v(source) = 0.000000e+00
v(body) = 0.000000e+00
i(vd) = -2.92275e-10
i(vg) = 2.254919e-11
i(vs) = 2.697254e-10
i(vb) = 1.215470e-19
abs(v(alim)) = 1.500000e-01
v(drain) = 1.500000e-01
v(gate) = 0.000000e+00
v(source) = 0.000000e+00
v(body) = 0.000000e+00
i(vd) = -3.82723e-10
i(vg) = 4.286792e-11
i(vs) = 3.398547e-10
i(vb) = 3.735430e-19
abs(v(alim)) = 2.000000e-01
v(drain) = 2.000000e-01
v(gate) = 0.000000e+00
v(source) = 0.000000e+00
v(body) = 0.000000e+00
i(vd) = -4.92758e-10
i(vg) = 7.057242e-11
i(vs) = 4.221855e-10
i(vb) = 7.377472e-19
abs(v(alim)) = 2.500000e-01
v(drain) = 2.500000e-01
v(gate) = 0.000000e+00
v(source) = 0.000000e+00
v(body) = 0.000000e+00
i(vd) = -6.28887e-10
i(vg) = 1.068347e-10
i(vs) = 5.220519e-10
i(vb) = 1.248793e-18
abs(v(alim)) = 3.000000e-01
v(drain) = 3.000000e-01
v(gate) = 0.000000e+00
v(source) = 0.000000e+00
v(body) = 0.000000e+00
i(vd) = -7.97043e-10
i(vg) = 1.529666e-10
i(vs) = 6.440766e-10
i(vb) = 1.953067e-18
abs(v(alim)) = 3.500000e-01
v(drain) = 3.500000e-01
v(gate) = 0.000000e+00
v(source) = 0.000000e+00
v(body) = 0.000000e+00
i(vd) = -1.00392e-09
i(vg) = 2.104336e-10
i(vs) = 7.934883e-10
i(vb) = 2.910944e-18
abs(v(alim)) = 4.000000e-01
v(drain) = 4.000000e-01
v(gate) = 0.000000e+00
v(source) = 0.000000e+00
v(body) = 0.000000e+00
i(vd) = -1.25740e-09
i(vg) = 2.808716e-10
i(vs) = 9.765277e-10
i(vb) = 4.200242e-18
abs(v(alim)) = 4.500000e-01
v(drain) = 4.500000e-01
v(gate) = 0.000000e+00
v(source) = 0.000000e+00
v(body) = 0.000000e+00
i(vd) = -1.56684e-09
i(vg) = 3.661035e-10
i(vs) = 1.200740e-09
i(vb) = 5.920738e-18
abs(v(alim)) = 5.000000e-01
v(drain) = 5.000000e-01
v(gate) = 0.000000e+00
v(source) = 0.000000e+00
v(body) = 0.000000e+00
i(vd) = -1.94343e-09
i(vg) = 4.681582e-10
i(vs) = 1.475274e-09
i(vb) = 8.199842e-18
abs(v(alim)) = 5.500000e-01
v(drain) = 5.500000e-01
v(gate) = 0.000000e+00
v(source) = 0.000000e+00
v(body) = 0.000000e+00
i(vd) = -2.40052e-09
i(vg) = 5.892913e-10
i(vs) = 1.811231e-09
i(vb) = 1.119967e-17
abs(v(alim)) = 6.000000e-01
v(drain) = 6.000000e-01
v(gate) = 0.000000e+00
v(source) = 0.000000e+00
v(body) = 0.000000e+00
i(vd) = -2.95408e-09
i(vg) = 7.320080e-10
i(vs) = 2.222068e-09
i(vb) = 1.512581e-17
abs(v(alim)) = 6.500000e-01
v(drain) = 6.500000e-01
v(gate) = 0.000000e+00
v(source) = 0.000000e+00
v(body) = 0.000000e+00
i(vd) = -3.62318e-09
i(vg) = 8.990870e-10
i(vs) = 2.724091e-09
i(vb) = 2.023810e-17
abs(v(alim)) = 7.000000e-01
v(drain) = 7.000000e-01
v(gate) = 0.000000e+00
v(source) = 0.000000e+00
v(body) = 0.000000e+00
i(vd) = -4.43065e-09
i(vg) = 1.093608e-09
i(vs) = 3.337045e-09
i(vb) = 2.686392e-17
abs(v(alim)) = 7.500000e-01
v(drain) = 7.500000e-01
v(gate) = 0.000000e+00
v(source) = 0.000000e+00
v(body) = 0.000000e+00
i(vd) = -5.40381e-09
i(vg) = 1.318981e-09
i(vs) = 4.084831e-09
i(vb) = 3.541439e-17
abs(v(alim)) = 8.000000e-01
v(drain) = 8.000000e-01
v(gate) = 0.000000e+00
v(source) = 0.000000e+00
v(body) = 0.000000e+00
i(vd) = -6.57536e-09
i(vg) = 1.578977e-09
i(vs) = 4.996388e-09
i(vb) = 4.640407e-17
abs(v(alim)) = 8.500000e-01
v(drain) = 8.500000e-01
v(gate) = 0.000000e+00
v(source) = 0.000000e+00
v(body) = 0.000000e+00
i(vd) = -7.98454e-09
i(vg) = 1.877766e-09
i(vs) = 6.106769e-09
i(vb) = 6.047491e-17
abs(v(alim)) = 9.000000e-01
v(drain) = 9.000000e-01
v(gate) = 0.000000e+00
v(source) = 0.000000e+00
v(body) = 0.000000e+00
i(vd) = -9.67842e-09
i(vg) = 2.219952e-09
i(vs) = 7.458470e-09
i(vb) = 7.842540e-17
abs(v(alim)) = 9.500000e-01
v(drain) = 9.500000e-01
v(gate) = 0.000000e+00
v(source) = 0.000000e+00
v(body) = 0.000000e+00
i(vd) = -1.17137e-08
i(vg) = 2.610616e-09
i(vs) = 9.103052e-09
i(vb) = 7.172203e-16
abs(v(alim)) = 1.000000e+00
v(drain) = 1.000000e+00
v(gate) = 0.000000e+00
v(source) = 0.000000e+00
v(body) = 0.000000e+00
i(vd) = -1.41591e-08
i(vg) = 3.055361e-09
i(vs) = 1.110316e-08
i(vb) = 5.809361e-13
abs(v(alim)) = 1.050000e+00
v(drain) = 1.050000e+00
v(gate) = 0.000000e+00
v(source) = 0.000000e+00
v(body) = 0.000000e+00
i(vd) = -1.71388e-08
i(vg) = 3.560362e-09
i(vs) = 1.353496e-08
i(vb) = 4.345541e-11
abs(v(alim)) = 1.100000e+00
v(drain) = 1.100000e+00
v(gate) = 0.000000e+00
v(source) = 0.000000e+00
v(body) = 0.000000e+00
i(vd) = -2.14228e-08
i(vg) = 4.132418e-09
i(vs) = 1.649121e-08
i(vb) = 7.992144e-10
abs(v(alim)) = 1.150000e+00
v(drain) = 1.150000e+00
v(gate) = 0.000000e+00
v(source) = 0.000000e+00
v(body) = 0.000000e+00
i(vd) = -3.14164e-08
i(vg) = 4.779011e-09
i(vs) = 2.008492e-08
i(vb) = 6.552506e-09
abs(v(alim)) = 1.200000e+00
v(drain) = 1.200000e+00
v(gate) = 0.000000e+00
v(source) = 0.000000e+00
v(body) = 0.000000e+00
i(vd) = -6.22853e-08
i(vg) = 5.508372e-09
i(vs) = 2.445391e-08
i(vb) = 3.232305e-08
